# File generated by Flopy version 3.3.2 on 02/02/2021 at 15:23:32.
BEGIN options
  SAVE_FLOWS
END options

BEGIN packages
  CHD6  mymodel.chd  chd_0
  NPF6  mymodel.npf  npf
  IC6  mymodel.ic  ic
  DIS6  mymodel.dis  dis
  OC6  mymodel.oc  oc
END packages

