# File generated by Flopy version 3.3.2 on 02/02/2021 at 15:23:32.
BEGIN griddata
  strt
    CONSTANT       1.00000000
END griddata

