# File generated by Flopy version 3.3.2 on 02/02/2021 at 14:46:48.
BEGIN griddata
  strt
    CONSTANT       1.00000000
END griddata

