# File generated by Flopy version 3.3.2 on 02/02/2021 at 15:28:49.
BEGIN options
END options

BEGIN timing
  TDIS6  tutorial1.tdis
END timing

BEGIN models
  gwf6  tutorial1.nam  tutorial1
END models

BEGIN exchanges
END exchanges

BEGIN solutiongroup  1
  ims6  tutorial1.ims  tutorial1
END solutiongroup  1

