# File generated by Flopy version 3.3.2 on 02/03/2021 at 16:06:17.
BEGIN options
END options

BEGIN packages
  DIS6  tutorial1.dis  dis
  IC6  tutorial1.ic  ic
  NPF6  tutorial1.npf  npf
  CHD6  tutorial1.chd  chd_0
  OC6  tutorial1.oc  oc
END packages

