# File generated by Flopy version 3.3.2 on 01/29/2021 at 12:46:28.
BEGIN options
  BUDGET  FILEOUT  tutorial1.cbb
  HEAD  FILEOUT  tutorial1.hds
END options

BEGIN period  1
  SAVE  HEAD  ALL
  SAVE  BUDGET  ALL
  PRINT  HEAD  LAST
END period  1

